    2
# Step:     0     Total energy:       -2.41421614     Ry
H        1.500000000   1.500000000   2.911786381
H        1.500000000   1.500000000   2.088213619
    2
# Step:     2     Total energy:       -2.41421614     Ry
H        1.500000000   1.500000000   2.911786381
H        1.500000000   1.500000000   2.088213619
    2
# Step:     3     Total energy:       -2.41421614     Ry
H        1.500000000   1.500000000   2.911786381
H        1.500000000   1.500000000   2.088213619
    2
# Step:     4     Total energy:       -2.41421614     Ry
H        1.500000000   1.500000000   2.911786381
H        1.500000000   1.500000000   2.088213619
    2
# Step:     5     Total energy:       -2.41421614     Ry
H        1.500000000   1.500000000   2.911786381
H        1.500000000   1.500000000   2.088213619
    2
# Step:     6     Total energy:       -2.41421614     Ry
H        1.500000000   1.500000000   2.911786381
H        1.500000000   1.500000000   2.088213619
    2
# Step:     7     Total energy:       -2.41421614     Ry
H        1.500000000   1.500000000   2.911786381
H        1.500000000   1.500000000   2.088213619
    2
# Step:     9     Total energy:       -2.41444120     Ry
H        1.500000000   1.500000000   2.888757690
H        1.500000000   1.500000000   2.111242310
    2
# Step:     8     Total energy:       -2.41444120     Ry
H        1.500000000   1.500000000   2.888757690
H        1.500000000   1.500000000   2.111242310
    2
# Step:    10     Total energy:       -2.41444120     Ry
H        1.500000000   1.500000000   2.888757690
H        1.500000000   1.500000000   2.111242310
    2
# Step:    11     Total energy:       -2.41444120     Ry
H        1.500000000   1.500000000   2.888757690
H        1.500000000   1.500000000   2.111242310
    2
# Step:    12     Total energy:       -2.41444120     Ry
H        1.500000000   1.500000000   2.888757690
H        1.500000000   1.500000000   2.111242310
    2
# Step:    13     Total energy:       -2.41444120     Ry
H        1.500000000   1.500000000   2.888757690
H        1.500000000   1.500000000   2.111242310
    2
# Step:    14     Total energy:       -2.41444120     Ry
H        1.500000000   1.500000000   2.888757690
H        1.500000000   1.500000000   2.111242310
    2
# Step:    15     Total energy:       -2.41444120     Ry
H        1.500000000   1.500000000   2.888757690
H        1.500000000   1.500000000   2.111242310
    2
# Step:    16     Total energy:       -2.41138678     Ry
H        1.500000000   1.500000000   2.930884980
H        1.500000000   1.500000000   2.069115020
    2
# Step:    17     Total energy:       -2.41138678     Ry
H        1.500000000   1.500000000   2.930884980
H        1.500000000   1.500000000   2.069115020
    2
# Step:    18     Total energy:       -2.41138678     Ry
H        1.500000000   1.500000000   2.930884980
H        1.500000000   1.500000000   2.069115020
    2
# Step:    19     Total energy:       -2.41138678     Ry
H        1.500000000   1.500000000   2.930884980
H        1.500000000   1.500000000   2.069115020
    2
# Step:    21     Total energy:       -2.41483329     Ry
H        1.500000000   1.500000000   2.898429840
H        1.500000000   1.500000000   2.101570160
    2
# Step:    20     Total energy:       -2.41483329     Ry
H        1.500000000   1.500000000   2.898429840
H        1.500000000   1.500000000   2.101570160
    2
# Step:    22     Total energy:       -2.41483329     Ry
H        1.500000000   1.500000000   2.898429840
H        1.500000000   1.500000000   2.101570160
    2
# Step:    23     Total energy:       -2.41483329     Ry
H        1.500000000   1.500000000   2.898429840
H        1.500000000   1.500000000   2.101570160
    2
# Step:    25     Total energy:       -2.41254010     Ry
H        1.500000000   1.500000000   2.875391452
H        1.500000000   1.500000000   2.124608548
    2
# Step:    24     Total energy:       -2.41254010     Ry
H        1.500000000   1.500000000   2.875391452
H        1.500000000   1.500000000   2.124608548
    2
# Step:    26     Total energy:       -2.41254010     Ry
H        1.500000000   1.500000000   2.875391452
H        1.500000000   1.500000000   2.124608548
    2
# Step:    27     Total energy:       -2.41254010     Ry
H        1.500000000   1.500000000   2.875391452
H        1.500000000   1.500000000   2.124608548
    2
# Step:    29     Total energy:       -2.41472317     Ry
H        1.500000000   1.500000000   2.904137130
H        1.500000000   1.500000000   2.095862870
    2
# Step:    28     Total energy:       -2.41472317     Ry
H        1.500000000   1.500000000   2.904137130
H        1.500000000   1.500000000   2.095862870
    2
# Step:    30     Total energy:       -2.41472317     Ry
H        1.500000000   1.500000000   2.904137130
H        1.500000000   1.500000000   2.095862870
    2
# Step:    31     Total energy:       -2.41472317     Ry
H        1.500000000   1.500000000   2.904137130
H        1.500000000   1.500000000   2.095862870
    2
# Step:    33     Total energy:       -2.41481455     Ry
H        1.500000000   1.500000000   2.900934015
H        1.500000000   1.500000000   2.099065985
    2
# Step:    32     Total energy:       -2.41481455     Ry
H        1.500000000   1.500000000   2.900934015
H        1.500000000   1.500000000   2.099065985
    2
# Step:    34     Total energy:       -2.41481455     Ry
H        1.500000000   1.500000000   2.900934015
H        1.500000000   1.500000000   2.099065985
    2
# Step:    35     Total energy:       -2.41481455     Ry
H        1.500000000   1.500000000   2.900934015
H        1.500000000   1.500000000   2.099065985
    2
# Step:     0     Total energy:       -2.41421614     Ry
H        1.500000000   1.500000000   2.911786381
H        1.500000000   1.500000000   2.088213619
    2
# Step:     1     Total energy:       -2.41421614     Ry
H        1.500000000   1.500000000   2.911786381
H        1.500000000   1.500000000   2.088213619
    2
# Step:     2     Total energy:       -2.41421614     Ry
H        1.500000000   1.500000000   2.911786381
H        1.500000000   1.500000000   2.088213619
    2
# Step:     3     Total energy:       -2.41421614     Ry
H        1.500000000   1.500000000   2.911786381
H        1.500000000   1.500000000   2.088213619
    2
# Step:     4     Total energy:       -2.41421614     Ry
H        1.500000000   1.500000000   2.911786381
H        1.500000000   1.500000000   2.088213619
    2
# Step:     5     Total energy:       -2.41421614     Ry
H        1.500000000   1.500000000   2.911786381
H        1.500000000   1.500000000   2.088213619
    2
# Step:     6     Total energy:       -2.41421614     Ry
H        1.500000000   1.500000000   2.911786381
H        1.500000000   1.500000000   2.088213619
    2
# Step:     7     Total energy:       -2.41421614     Ry
H        1.500000000   1.500000000   2.911786381
H        1.500000000   1.500000000   2.088213619
    2
# Step:     8     Total energy:       -2.41444120     Ry
H        1.500000000   1.500000000   2.888757690
H        1.500000000   1.500000000   2.111242310
    2
# Step:     9     Total energy:       -2.41444120     Ry
H        1.500000000   1.500000000   2.888757690
H        1.500000000   1.500000000   2.111242310
    2
# Step:    10     Total energy:       -2.41444120     Ry
H        1.500000000   1.500000000   2.888757690
H        1.500000000   1.500000000   2.111242310
    2
# Step:    11     Total energy:       -2.41444120     Ry
H        1.500000000   1.500000000   2.888757690
H        1.500000000   1.500000000   2.111242310
    2
# Step:    12     Total energy:       -2.41444120     Ry
H        1.500000000   1.500000000   2.888757690
H        1.500000000   1.500000000   2.111242310
    2
# Step:    13     Total energy:       -2.41444120     Ry
H        1.500000000   1.500000000   2.888757690
H        1.500000000   1.500000000   2.111242310
    2
# Step:    14     Total energy:       -2.41444120     Ry
H        1.500000000   1.500000000   2.888757690
H        1.500000000   1.500000000   2.111242310
    2
# Step:    15     Total energy:       -2.41444120     Ry
H        1.500000000   1.500000000   2.888757690
H        1.500000000   1.500000000   2.111242310
    2
# Step:    16     Total energy:       -2.41138678     Ry
H        1.500000000   1.500000000   2.930884980
H        1.500000000   1.500000000   2.069115020
    2
# Step:    17     Total energy:       -2.41138678     Ry
H        1.500000000   1.500000000   2.930884980
H        1.500000000   1.500000000   2.069115020
    2
# Step:    18     Total energy:       -2.41138678     Ry
H        1.500000000   1.500000000   2.930884980
H        1.500000000   1.500000000   2.069115020
    2
# Step:    19     Total energy:       -2.41138678     Ry
H        1.500000000   1.500000000   2.930884980
H        1.500000000   1.500000000   2.069115020
    2
# Step:    20     Total energy:       -2.41483329     Ry
H        1.500000000   1.500000000   2.898429840
H        1.500000000   1.500000000   2.101570160
    2
# Step:    21     Total energy:       -2.41483329     Ry
H        1.500000000   1.500000000   2.898429840
H        1.500000000   1.500000000   2.101570160
    2
# Step:    22     Total energy:       -2.41483329     Ry
H        1.500000000   1.500000000   2.898429840
H        1.500000000   1.500000000   2.101570160
    2
# Step:    23     Total energy:       -2.41483329     Ry
H        1.500000000   1.500000000   2.898429840
H        1.500000000   1.500000000   2.101570160
    2
# Step:    24     Total energy:       -2.41254010     Ry
H        1.500000000   1.500000000   2.875391452
H        1.500000000   1.500000000   2.124608548
    2
# Step:    25     Total energy:       -2.41254010     Ry
H        1.500000000   1.500000000   2.875391452
H        1.500000000   1.500000000   2.124608548
    2
# Step:    26     Total energy:       -2.41254010     Ry
H        1.500000000   1.500000000   2.875391452
H        1.500000000   1.500000000   2.124608548
    2
# Step:    27     Total energy:       -2.41254010     Ry
H        1.500000000   1.500000000   2.875391452
H        1.500000000   1.500000000   2.124608548
    2
# Step:    28     Total energy:       -2.41472317     Ry
H        1.500000000   1.500000000   2.904137130
H        1.500000000   1.500000000   2.095862870
    2
# Step:    29     Total energy:       -2.41472317     Ry
H        1.500000000   1.500000000   2.904137130
H        1.500000000   1.500000000   2.095862870
    2
# Step:    30     Total energy:       -2.41472317     Ry
H        1.500000000   1.500000000   2.904137130
H        1.500000000   1.500000000   2.095862870
    2
# Step:    31     Total energy:       -2.41472317     Ry
H        1.500000000   1.500000000   2.904137130
H        1.500000000   1.500000000   2.095862870
    2
# Step:    32     Total energy:       -2.41481455     Ry
H        1.500000000   1.500000000   2.900934015
H        1.500000000   1.500000000   2.099065985
    2
# Step:    33     Total energy:       -2.41481455     Ry
H        1.500000000   1.500000000   2.900934015
H        1.500000000   1.500000000   2.099065985
    2
# Step:    34     Total energy:       -2.41481455     Ry
H        1.500000000   1.500000000   2.900934015
H        1.500000000   1.500000000   2.099065985
    2
# Step:    35     Total energy:       -2.41481455     Ry
H        1.500000000   1.500000000   2.900934015
H        1.500000000   1.500000000   2.099065985
    2
# Step:     0     Total energy:       -2.41421614     Ry
H        1.500000000   1.500000000   2.911786381
H        1.500000000   1.500000000   2.088213619
    2
# Step:     1     Total energy:       -2.41421614     Ry
H        1.500000000   1.500000000   2.911786381
H        1.500000000   1.500000000   2.088213619
    2
# Step:     2     Total energy:       -2.41444120     Ry
H        1.500000000   1.500000000   2.888757690
H        1.500000000   1.500000000   2.111242310
    2
# Step:     3     Total energy:       -2.41444120     Ry
H        1.500000000   1.500000000   2.888757690
H        1.500000000   1.500000000   2.111242310
    2
# Step:     4     Total energy:       -2.41138678     Ry
H        1.500000000   1.500000000   2.930884980
H        1.500000000   1.500000000   2.069115020
    2
# Step:     5     Total energy:       -2.41483329     Ry
H        1.500000000   1.500000000   2.898429840
H        1.500000000   1.500000000   2.101570160
    2
# Step:     6     Total energy:       -2.41254010     Ry
H        1.500000000   1.500000000   2.875391452
H        1.500000000   1.500000000   2.124608548
    2
# Step:     7     Total energy:       -2.41472317     Ry
H        1.500000000   1.500000000   2.904137130
H        1.500000000   1.500000000   2.095862870
    2
# Step:     8     Total energy:       -2.41481455     Ry
H        1.500000000   1.500000000   2.900934015
H        1.500000000   1.500000000   2.099065985
    2
# Step:     0     Total energy:       -2.41421614     Ry
H        1.500000000   1.500000000   2.911786381
H        1.500000000   1.500000000   2.088213619
    2
# Step:     1     Total energy:       -2.41421614     Ry
H        1.500000000   1.500000000   2.911786381
H        1.500000000   1.500000000   2.088213619
    2
# Step:     2     Total energy:       -2.41444120     Ry
H        1.500000000   1.500000000   2.888757690
H        1.500000000   1.500000000   2.111242310
    2
# Step:     3     Total energy:       -2.41444120     Ry
H        1.500000000   1.500000000   2.888757690
H        1.500000000   1.500000000   2.111242310
    2
# Step:     4     Total energy:       -2.41138678     Ry
H        1.500000000   1.500000000   2.930884980
H        1.500000000   1.500000000   2.069115020
    2
# Step:     5     Total energy:       -2.41483329     Ry
H        1.500000000   1.500000000   2.898429840
H        1.500000000   1.500000000   2.101570160
    2
# Step:     6     Total energy:       -2.41254010     Ry
H        1.500000000   1.500000000   2.875391452
H        1.500000000   1.500000000   2.124608548
    2
# Step:     7     Total energy:       -2.41472317     Ry
H        1.500000000   1.500000000   2.904137130
H        1.500000000   1.500000000   2.095862870
    2
# Step:     8     Total energy:       -2.41481455     Ry
H        1.500000000   1.500000000   2.900934015
H        1.500000000   1.500000000   2.099065985
    2
# Step:     0     Total energy:       -2.41421614     Ry
H        1.500000000   1.500000000   2.911786381
H        1.500000000   1.500000000   2.088213619
    2
# Step:     1     Total energy:       -2.41421614     Ry
H        1.500000000   1.500000000   2.911786381
H        1.500000000   1.500000000   2.088213619
    2
# Step:     2     Total energy:       -2.41444120     Ry
H        1.500000000   1.500000000   2.888757690
H        1.500000000   1.500000000   2.111242310
    2
# Step:     3     Total energy:       -2.41444120     Ry
H        1.500000000   1.500000000   2.888757690
H        1.500000000   1.500000000   2.111242310
    2
# Step:     4     Total energy:       -2.41138678     Ry
H        1.500000000   1.500000000   2.930884980
H        1.500000000   1.500000000   2.069115020
    2
# Step:     5     Total energy:       -2.41483329     Ry
H        1.500000000   1.500000000   2.898429840
H        1.500000000   1.500000000   2.101570160
    2
# Step:     6     Total energy:       -2.41254010     Ry
H        1.500000000   1.500000000   2.875391452
H        1.500000000   1.500000000   2.124608548
    2
# Step:     7     Total energy:       -2.41472317     Ry
H        1.500000000   1.500000000   2.904137130
H        1.500000000   1.500000000   2.095862870
    2
# Step:     8     Total energy:       -2.41481455     Ry
H        1.500000000   1.500000000   2.900934015
H        1.500000000   1.500000000   2.099065985
    2
# Step:     0     Total energy:       -2.41421614     Ry
H        1.500000000   1.500000000   2.911786381
H        1.500000000   1.500000000   2.088213619
    2
# Step:     1     Total energy:       -2.41421614     Ry
H        1.500000000   1.500000000   2.911786381
H        1.500000000   1.500000000   2.088213619
    2
# Step:     2     Total energy:       -2.41444120     Ry
H        1.500000000   1.500000000   2.888757690
H        1.500000000   1.500000000   2.111242310
    2
# Step:     3     Total energy:       -2.41444120     Ry
H        1.500000000   1.500000000   2.888757690
H        1.500000000   1.500000000   2.111242310
    2
# Step:     4     Total energy:       -2.41138678     Ry
H        1.500000000   1.500000000   2.930884980
H        1.500000000   1.500000000   2.069115020
    2
# Step:     5     Total energy:       -2.41483329     Ry
H        1.500000000   1.500000000   2.898429840
H        1.500000000   1.500000000   2.101570160
    2
# Step:     6     Total energy:       -2.41254010     Ry
H        1.500000000   1.500000000   2.875391452
H        1.500000000   1.500000000   2.124608548
    2
# Step:     7     Total energy:       -2.41472317     Ry
H        1.500000000   1.500000000   2.904137130
H        1.500000000   1.500000000   2.095862870
    2
# Step:     8     Total energy:       -2.41481455     Ry
H        1.500000000   1.500000000   2.900934015
H        1.500000000   1.500000000   2.099065985
    2
# Step:     0     Total energy:       -2.41421614     Ry
H        1.500000000   1.500000000   2.911786381
H        1.500000000   1.500000000   2.088213619
    2
# Step:     1     Total energy:       -2.41421614     Ry
H        1.500000000   1.500000000   2.911786381
H        1.500000000   1.500000000   2.088213619
    2
# Step:     2     Total energy:       -2.41444120     Ry
H        1.500000000   1.500000000   2.888757690
H        1.500000000   1.500000000   2.111242310
    2
# Step:     3     Total energy:       -2.41444120     Ry
H        1.500000000   1.500000000   2.888757690
H        1.500000000   1.500000000   2.111242310
    2
# Step:     4     Total energy:       -2.41138678     Ry
H        1.500000000   1.500000000   2.930884980
H        1.500000000   1.500000000   2.069115020
    2
# Step:     5     Total energy:       -2.41483329     Ry
H        1.500000000   1.500000000   2.898429840
H        1.500000000   1.500000000   2.101570160
    2
# Step:     6     Total energy:       -2.41254010     Ry
H        1.500000000   1.500000000   2.875391452
H        1.500000000   1.500000000   2.124608548
    2
# Step:     7     Total energy:       -2.41472317     Ry
H        1.500000000   1.500000000   2.904137130
H        1.500000000   1.500000000   2.095862870
    2
# Step:     8     Total energy:       -2.41481455     Ry
H        1.500000000   1.500000000   2.900934015
H        1.500000000   1.500000000   2.099065985
    2
# Step:     0     Total energy:       -2.41421614     Ry
H        1.500000000   1.500000000   2.911786381
H        1.500000000   1.500000000   2.088213619
    2
# Step:     1     Total energy:       -2.41421614     Ry
H        1.500000000   1.500000000   2.911786381
H        1.500000000   1.500000000   2.088213619
    2
# Step:     2     Total energy:       -2.41444120     Ry
H        1.500000000   1.500000000   2.888757690
H        1.500000000   1.500000000   2.111242310
    2
# Step:     3     Total energy:       -2.41444120     Ry
H        1.500000000   1.500000000   2.888757690
H        1.500000000   1.500000000   2.111242310
    2
# Step:     4     Total energy:       -2.41138678     Ry
H        1.500000000   1.500000000   2.930884980
H        1.500000000   1.500000000   2.069115020
    2
# Step:     5     Total energy:       -2.41483329     Ry
H        1.500000000   1.500000000   2.898429840
H        1.500000000   1.500000000   2.101570160
    2
# Step:     6     Total energy:       -2.41254010     Ry
H        1.500000000   1.500000000   2.875391452
H        1.500000000   1.500000000   2.124608548
    2
# Step:     7     Total energy:       -2.41472317     Ry
H        1.500000000   1.500000000   2.904137130
H        1.500000000   1.500000000   2.095862870
    2
# Step:     8     Total energy:       -2.41481455     Ry
H        1.500000000   1.500000000   2.900934015
H        1.500000000   1.500000000   2.099065985
